23
1_Hf SCF Done: -1356.49381793 A.U.
  Hf    -0.101742     0.463426     0.037315
  Cl     1.519484     2.258013    -0.054451
  Cl    -2.115403     1.794813     0.211090
  C     -1.215524    -0.002181    -2.199699
  C      0.009053     0.656349    -2.488458
  C     -0.914629    -1.256190    -1.591619
  C      1.078877    -0.206215    -2.092740
  C      0.511601    -1.389132    -1.547401
  C     -0.231494     0.498453     2.569354
  C     -1.066559    -0.575315     2.128338
  C      1.112667     0.168449     2.250948
  C     -0.237415    -1.558380     1.524534
  C      1.115723    -1.089129     1.579468
  H     -2.213413     0.402637    -2.365030
  H      0.117577     1.655592    -2.910952
  H      2.142814     0.018746    -2.175036
  H      1.064230    -2.251602    -1.172615
  H     -0.572738     1.420060     3.041572
  H     -2.152540    -0.617027     2.218850
  H      1.997959    -1.618692     1.216215
  H      1.985686     0.792418     2.439300
  H     -1.642856    -1.999511    -1.263063
  H     -0.570546    -2.508419     1.104757
